                                   MODFLOW 6
                U.S. GEOLOGICAL SURVEY MODULAR HYDROLOGIC MODEL
                            VERSION 6.6.0 12/20/2024

   MODFLOW 6 compiled Dec 23 2024 21:44:49 with Intel(R) Fortran Intel(R) 64
   Compiler Classic for applications running on Intel(R) 64, Version 2021.7.0
                             Build 20220726_000000

This software has been approved for release by the U.S. Geological 
Survey (USGS). Although the software has been subjected to rigorous 
review, the USGS reserves the right to update the software as needed 
pursuant to further analysis and review. No warranty, expressed or 
implied, is made by the USGS or the U.S. Government as to the 
functionality of the software and related material nor shall the 
fact of release constitute any such warranty. Furthermore, the 
software is released on condition that neither the USGS nor the U.S. 
Government shall be held liable for any damages resulting from its 
authorized or unauthorized use. Also refer to the USGS Water 
Resources Software User Rights Notice for complete use, copyright, 
and distribution information.


As a work of the United States Government, this USGS product is 
in the public domain within the United States. You can copy, 
modify, distribute, and perform the work, even for commercial 
purposes, all without asking permission. Additionally, USGS 
waives copyright and related rights in the work worldwide 
through CC0 1.0 Universal Public Domain Dedication 
(https://creativecommons.org/publicdomain/zero/1.0/).

The following GNU Lesser General Public License (LGPL) libraries
are used in this USGS product:

    SPARSKIT version 2.0
      ilut, luson, and qsplit 
      (https://www-users.cse.umn.edu/~saad/software/SPARSKIT/)

    RCM - Reverse Cuthill McKee Ordering
      (https://people.math.sc.edu/Burkardt/f_src/rcm/rcm.html)

    BLAS - Basic Linear Algebra Subprograms Level 1
      (https://people.math.sc.edu/Burkardt/f_src/blas1_d/blas1_d.html)

    SPARSEKIT - Sparse Matrix Utility Package
      amux, dperm, dvperm, rperm, and cperm
      (https://people.sc.fsu.edu/~jburkardt/f77_src/sparsekit/sparsekit.html)

The following BSD-3 License libraries are used in this USGS product:

    Modern Fortran DAG Library
      Copyright (c) 2018, Jacob Williams
      All rights reserved.
      (https://github.com/jacobwilliams/daglib)

MODFLOW 6 compiler options: /Isrc\libmf6core.a.p /Isrc /I..\src
/Isrc\libmf6_external.a.p /MTd /nologo /warn:general /warn:truncated_source
/stand:f08 /O2 /fpe:0 /heap-arrays:0 /traceback /fpp /Qdiag-disable:7416
/Qdiag-disable:7025 /Qdiag-disable:5268 /Qdiag-disable:10448
/Fdsrc\libmf6core.a.p\Utilities_compilerversion.F90.pdb
/module:src\libmf6core.a.p
/Fosrc/libmf6core.a.p/Utilities_compilerversion.F90.obj /c

System command used to initiate simulation:
C:\Users\zhl18\miniconda3\envs\hydro_sim2real\Library\bin\mf6.exe

MODFLOW was compiled using uniform precision.

Real Variables
  KIND: 8
  TINY (smallest non-zero value):    2.225074-308
  HUGE (largest value):    1.797693+308
  PRECISION: 15
  SIZE IN BITS: 64

Integer Variables
  KIND: 4
  HUGE (largest value): 2147483647
  SIZE IN BITS: 32

Long Integer Variables
  KIND: 8
  HUGE (largest value): 9223372036854775807
  SIZE IN BITS: 64

Logical Variables
  KIND: 4
  SIZE IN BITS: 32
 

 OPENED mfsim.nam
 FILE TYPE:NAM6               UNIT 1001   STATUS:OLD                 
 FORMAT:FORMATTED              ACCESS:SEQUENTIAL          
 ACTION:READ                

 # File generated by Flopy version 3.10.0 on 05/09/2026 at 08:54:31.

 OPENED test_model.tdis
 FILE TYPE:TDIS6              UNIT 1002   STATUS:OLD                 
 FORMAT:FORMATTED              ACCESS:SEQUENTIAL          
 ACTION:READ                

 # File generated by Flopy version 3.10.0 on 05/09/2026 at 08:54:31.

 OPENED test_model.nam
 FILE TYPE:GWF6               UNIT 1003   STATUS:OLD                 
 FORMAT:FORMATTED              ACCESS:SEQUENTIAL          
 ACTION:READ                

 # File generated by Flopy version 3.10.0 on 05/09/2026 at 08:54:31.

 OPENED test_model.dis
 FILE TYPE:DIS6               UNIT 1004   STATUS:OLD                 
 FORMAT:FORMATTED              ACCESS:SEQUENTIAL          
 ACTION:READ                

 # File generated by Flopy version 3.10.0 on 05/09/2026 at 08:54:31.

 OPENED test_model.npf
 FILE TYPE:NPF6               UNIT 1005   STATUS:OLD                 
 FORMAT:FORMATTED              ACCESS:SEQUENTIAL          
 ACTION:READ                

 # File generated by Flopy version 3.10.0 on 05/09/2026 at 08:54:31.

 OPENED test_model.sto
 FILE TYPE:STO6               UNIT 1006   STATUS:OLD                 
 FORMAT:FORMATTED              ACCESS:SEQUENTIAL          
 ACTION:READ                

 # File generated by Flopy version 3.10.0 on 05/09/2026 at 08:54:31.

 OPENED test_model.ic
 FILE TYPE:IC6                UNIT 1007   STATUS:OLD                 
 FORMAT:FORMATTED              ACCESS:SEQUENTIAL          
 ACTION:READ                

 # File generated by Flopy version 3.10.0 on 05/09/2026 at 08:54:31.

 OPENED test_model.oc
 FILE TYPE:OC6       UNIT 1008   STATUS:OLD                 
 FORMAT:FORMATTED              ACCESS:SEQUENTIAL          
 ACTION:READ                


 OPENED test_model.chd
 FILE TYPE:CHD6               UNIT 1009   STATUS:OLD                 
 FORMAT:FORMATTED              ACCESS:SEQUENTIAL          
 ACTION:READ                

 # File generated by Flopy version 3.10.0 on 05/09/2026 at 08:54:31.

 READING SIMULATION OPTIONS
    MAXIMUM NUMBER OF ERRORS THAT WILL BE STORED IS 1000
 END OF SIMULATION OPTIONS

 READING SIMULATION TIMING

 TDIS -- TEMPORAL DISCRETIZATION PACKAGE,
 VERSION 1 : 11/13/2014 - INPUT READ FROM MEMPATH: __INPUT__/SIM/TDIS                                
 PROCESSING TDIS OPTIONS
    SIMULATION TIME UNIT IS DAYS
 END OF TDIS OPTIONS
 PROCESSING TDIS DIMENSIONS
    1 STRESS PERIOD(S) IN SIMULATION
 END OF TDIS DIMENSIONS
 PROCESSING TDIS PERIODDATA


 STRESS PERIOD     LENGTH       TIME STEPS     MULTIPLIER FOR DELT
 ----------------------------------------------------------------------------
        1         1000.000          1                    1.000
 END OF TDIS PERIODDATA
 END OF SIMULATION TIMING

 READING SIMULATION MODELS
    GWF6 model 1 will be created
 END OF SIMULATION MODELS

 READING SIMULATION EXCHANGES
 END OF SIMULATION EXCHANGES

 READING SOLUTIONGROUP

 Creating solution: SLN_1           

 OPENED test_model.ims
 FILE TYPE:IMS   UNIT 1011   STATUS:OLD                 
 FORMAT:FORMATTED              ACCESS:SEQUENTIAL          
 ACTION:READ                

 END OF SOLUTIONGROUP

PROCESSING MODEL CONNECTIONS

 IMS -- ITERATIVE MODEL SOLUTION PACKAGE, VERSION 6, 4/28/2017
         INPUT READ FROM UNIT 1011
 # File generated by Flopy version 3.10.0 on 05/09/2026 at 08:54:31.

 PROCESSING IMS OPTIONS
 END OF IMS OPTIONS

 PROCESSING IMS NONLINEAR
 END OF IMS NONLINEAR DATA
 ***UNDER-RELAXATION WILL NOT BE USED***
 
 ***IMS LINEAR SOLVER WILL BE USED***

 IMSLINEAR -- UNSTRUCTURED LINEAR SOLUTION PACKAGE, VERSION 8, 04/28/2017
 A symmetric matrix will be solved

 OUTER ITERATION CONVERGENCE CRITERION    (DVCLOSE) =    0.100000E-05
 MAXIMUM NUMBER OF OUTER ITERATIONS        (MXITER) = 1000
 SOLVER PRINTOUT INDEX                     (IPRIMS) = 2
 NONLINEAR ITERATION METHOD            (NONLINMETH) = 0
 LINEAR SOLUTION METHOD                   (LINMETH) = 1

       SOLUTION BY THE        CONJUGATE-GRADIENT       METHOD
 ------------------------------------------------------------------
 MAXIMUM OF 1000 CALLS OF SOLUTION ROUTINE
 MAXIMUM OF 50 INTERNAL ITERATIONS PER CALL TO SOLUTION ROUTINE
 LINEAR ACCELERATION METHOD            = CG        
 MATRIX PRECONDITIONING TYPE           = INCOMPLETE LU       
 MATRIX SCALING APPROACH               = NO SCALING          
 MATRIX REORDERING APPROACH            = ORIGINAL ORDERING        
 NUMBER OF ORTHOGONALIZATIONS          = 0
 HEAD CHANGE CRITERION FOR CLOSURE     =    0.10000E-02
 RESIDUAL CHANGE CRITERION FOR CLOSURE =    0.10000E+00
 RESIDUAL CONVERGENCE OPTION           = 0
 RESIDUAL CONVERGENCE NORM             = INFINITY NORM   
 RELAXATION FACTOR                     =    0.00000E+00



 
    Solving:  Stress period:     1    Time step:     1
 
1
 STRESS PERIOD NO. 1, LENGTH =   1000.000    
 ------------------------------------------
 NUMBER OF TIME STEPS = 1
 MULTIPLIER FOR DELT =     1.000
 INITIAL TIME STEP SIZE =   1000.000    

 SLN_1 OUTER ITERATION SUMMARY
 ----------------------------------------------------------------------------------------------------------
                                OUTER      INNER                    STEP   MAXIMUM CHANGE MODEL-(CELLID) OR
 OUTER ITERATION STEP       ITERATION  ITERATION  MAXIMUM CHANGE SUCCESS             MODEL-PACKAGE-(NUMBER)
 ----------------------------------------------------------------------------------------------------------
 Model                              1         10       3.9170199                              1_GWF-(1,6,2)
 Model                              2          6      0.10107307                              1_GWF-(1,7,6)
 Model                              3          2  8.80876804E-04                              1_GWF-(1,2,8)
 Model                              4          1 -3.62502514E-05                              1_GWF-(1,2,5)
 Model                              5          1 -2.19260557E-05                              1_GWF-(1,1,6)
 Model                              6          1 -1.14985904E-05                              1_GWF-(1,2,5)
 Model                              7          1 -1.00862400E-05                              1_GWF-(1,1,7)
 Model                              8          1 -6.15570727E-06                              1_GWF-(1,2,5)
 Model                              9          1 -5.18140715E-06                              1_GWF-(1,1,6)
 Model                             10          1 -3.21698059E-06                              1_GWF-(1,2,5)
 Model                             11          1 -2.68960326E-06                              1_GWF-(1,1,6)
 Model                             12          1 -1.67998870E-06                              1_GWF-(1,2,5)
 Model                             13          1 -1.39838434E-06                              1_GWF-(1,1,6)
 Model                             14          1 -8.76275166E-07       *                      1_GWF-(1,2,5)
 ----------------------------------------------------------------------------------------------------------


 14 CALLS TO NUMERICAL SOLUTION IN TIME STEP 1 STRESS PERIOD 1
 29 TOTAL ITERATIONS

 SLN_1 INNER ITERATION SUMMARY
 --------------------------------------------------------------------------------------------------------------------------------------
      TOTAL      OUTER      INNER                                                            MAXIMUM                                   
  ITERATION  ITERATION  ITERATION  MAXIMUM CHANGE      MAXIMUM CHANGE MODEL-(CELLID)        RESIDUAL    MAXIMUM RESIDUAL MODEL-(CELLID)
 --------------------------------------------------------------------------------------------------------------------------------------
          1          1          1       3.7704637                     1_GWF-(1,10,2)       725.75404                      1_GWF-(1,2,8)
          2          1          2       1.3911521                      1_GWF-(1,1,3)       206.68188                      1_GWF-(1,1,3)
          3          1          3      0.18429744                      1_GWF-(1,2,4)      -23.931599                      1_GWF-(1,2,5)
          4          1          4 -5.96868914E-02                     1_GWF-(1,10,5)      -18.674526                      1_GWF-(1,2,7)
          5          1          5 -3.86962868E-02                      1_GWF-(1,9,4)      -5.2907079                      1_GWF-(1,1,8)
          6          1          6  1.00489052E-02                      1_GWF-(1,1,8)       1.4071220                      1_GWF-(1,2,2)
          7          1          7 -2.48154129E-03                     1_GWF-(1,10,6)      0.57047772                      1_GWF-(1,2,3)
          8          1          8 -1.78801531E-03                      1_GWF-(1,1,5)     -0.38598894                      1_GWF-(1,9,7)
          9          1          9 -1.05279707E-03                      1_GWF-(1,1,7)     -0.17742016                      1_GWF-(1,2,4)
         10          1         10 -2.11540425E-04                      1_GWF-(1,2,6) -3.18400287E-02                      1_GWF-(1,3,3)
         11          2          1  6.04027116E-02                     1_GWF-(1,10,6)      -15.621943                      1_GWF-(1,2,2)
         12          2          2  5.59363511E-02                      1_GWF-(1,8,6)      -6.6511249                      1_GWF-(1,2,8)
         13          2          3  9.29762730E-03                      1_GWF-(1,2,8)     -0.96350974                      1_GWF-(1,3,7)
         14          2          4 -2.01744377E-03                     1_GWF-(1,10,5)     -0.27996749                      1_GWF-(1,1,5)
         15          2          5 -8.88811833E-04                     1_GWF-(1,10,4)     -0.15071606                      1_GWF-(1,2,5)
         16          2          6  3.47864010E-04                      1_GWF-(1,2,6) -6.55260532E-02                      1_GWF-(1,2,2)
         17          3          1  9.05210582E-04                      1_GWF-(1,1,8)     -0.14711030                      1_GWF-(1,1,2)
         18          3          2 -1.15735764E-04                      1_GWF-(1,8,4)  2.49052367E-02                      1_GWF-(1,2,5)
         19          4          1 -3.62502514E-05                      1_GWF-(1,2,5)  6.95958573E-03                      1_GWF-(1,1,6)
         20          5          1 -2.19260557E-05                      1_GWF-(1,1,6)  7.83124659E-03                      1_GWF-(1,2,5)
         21          6          1 -1.14985904E-05                      1_GWF-(1,2,5)  3.19746010E-03                      1_GWF-(1,1,6)
         22          7          1 -1.00862399E-05                      1_GWF-(1,1,7)  4.47552174E-03                      1_GWF-(1,2,5)
         23          8          1 -6.15570727E-06                      1_GWF-(1,2,5)  1.68444021E-03                      1_GWF-(1,1,6)
         24          9          1 -5.18140715E-06                      1_GWF-(1,1,6)  2.40482285E-03                      1_GWF-(1,2,5)
         25         10          1 -3.21698058E-06                      1_GWF-(1,2,5)  8.87193888E-04                      1_GWF-(1,1,6)
         26         11          1 -2.68960327E-06                      1_GWF-(1,1,6)  1.27755000E-03                      1_GWF-(1,2,5)
         27         12          1 -1.67998870E-06                      1_GWF-(1,2,5)  4.65882443E-04                      1_GWF-(1,1,6)
         28         13          1 -1.39838435E-06                      1_GWF-(1,1,6)  6.74041212E-04                      1_GWF-(1,2,5)
         29         14          1 -8.76275167E-07                      1_GWF-(1,2,5)  2.43972587E-04                      1_GWF-(1,1,6)
 --------------------------------------------------------------------------------------------------------------------------------------



 MEMORY MANAGER TOTAL STORAGE BY DATA TYPE, IN MEGABYTES
 -------------------------------
                    ALLOCATED   
 DATA TYPE           MEMORY     
 -------------------------------
 Character        7.46100000E-03
 Logical          4.80000000E-05
 Integer          0.63136800    
 Real             0.85420800    
 -------------------------------
 Total            1.4930850     
 Virtual          0.0000000     
 -------------------------------


 
 Run end date and time (yyyy/mm/dd hh:mm:ss): 2026/05/09  8:54:31
 Elapsed run time:  0.144 Seconds
 Normal termination of simulation.
