                                   MODFLOW 6
                U.S. GEOLOGICAL SURVEY MODULAR HYDROLOGIC MODEL
                          GROUNDWATER FLOW MODEL (GWF)
                            VERSION 6.6.0 12/20/2024

   MODFLOW 6 compiled Dec 23 2024 21:44:49 with Intel(R) Fortran Intel(R) 64
   Compiler Classic for applications running on Intel(R) 64, Version 2021.7.0
                             Build 20220726_000000

This software has been approved for release by the U.S. Geological 
Survey (USGS). Although the software has been subjected to rigorous 
review, the USGS reserves the right to update the software as needed 
pursuant to further analysis and review. No warranty, expressed or 
implied, is made by the USGS or the U.S. Government as to the 
functionality of the software and related material nor shall the 
fact of release constitute any such warranty. Furthermore, the 
software is released on condition that neither the USGS nor the U.S. 
Government shall be held liable for any damages resulting from its 
authorized or unauthorized use. Also refer to the USGS Water 
Resources Software User Rights Notice for complete use, copyright, 
and distribution information.


As a work of the United States Government, this USGS product is 
in the public domain within the United States. You can copy, 
modify, distribute, and perform the work, even for commercial 
purposes, all without asking permission. Additionally, USGS 
waives copyright and related rights in the work worldwide 
through CC0 1.0 Universal Public Domain Dedication 
(https://creativecommons.org/publicdomain/zero/1.0/).

The following GNU Lesser General Public License (LGPL) libraries
are used in this USGS product:

    SPARSKIT version 2.0
      ilut, luson, and qsplit 
      (https://www-users.cse.umn.edu/~saad/software/SPARSKIT/)

    RCM - Reverse Cuthill McKee Ordering
      (https://people.math.sc.edu/Burkardt/f_src/rcm/rcm.html)

    BLAS - Basic Linear Algebra Subprograms Level 1
      (https://people.math.sc.edu/Burkardt/f_src/blas1_d/blas1_d.html)

    SPARSEKIT - Sparse Matrix Utility Package
      amux, dperm, dvperm, rperm, and cperm
      (https://people.sc.fsu.edu/~jburkardt/f77_src/sparsekit/sparsekit.html)

The following BSD-3 License libraries are used in this USGS product:

    Modern Fortran DAG Library
      Copyright (c) 2018, Jacob Williams
      All rights reserved.
      (https://github.com/jacobwilliams/daglib)

MODFLOW 6 compiler options: /Isrc\libmf6core.a.p /Isrc /I..\src
/Isrc\libmf6_external.a.p /MTd /nologo /warn:general /warn:truncated_source
/stand:f08 /O2 /fpe:0 /heap-arrays:0 /traceback /fpp /Qdiag-disable:7416
/Qdiag-disable:7025 /Qdiag-disable:5268 /Qdiag-disable:10448
/Fdsrc\libmf6core.a.p\Utilities_compilerversion.F90.pdb
/module:src\libmf6core.a.p
/Fosrc/libmf6core.a.p/Utilities_compilerversion.F90.obj /c

System command used to initiate simulation:
C:\Users\zhl18\miniconda3\envs\hydro_sim2real\Library\bin\mf6.exe

MODFLOW was compiled using uniform precision.

Real Variables
  KIND: 8
  TINY (smallest non-zero value):    2.225074-308
  HUGE (largest value):    1.797693+308
  PRECISION: 15
  SIZE IN BITS: 64

Integer Variables
  KIND: 4
  HUGE (largest value): 2147483647
  SIZE IN BITS: 32

Long Integer Variables
  KIND: 8
  HUGE (largest value): 9223372036854775807
  SIZE IN BITS: 64

Logical Variables
  KIND: 4
  SIZE IN BITS: 32
 
 NAMEFILE OPTIONS:
    FLOWS WILL BE SAVED TO BUDGET FILE SPECIFIED IN OUTPUT CONTROL
 END NAMEFILE OPTIONS:

 DIS -- STRUCTURED GRID DISCRETIZATION PACKAGE, VERSION 2 : 3/27/2014 - INPUT READ FROM MEMPATH: __INPUT__/TEST_MODEL/DIS                          


 NPF -- NODE PROPERTY FLOW PACKAGE, VERSION 1, 3/30/2015 INPUT READ FROM MEMPATH: __INPUT__/TEST_MODEL/NPF                          


 IC -- Initial Conditions Package, Version 8, 3/28/2015 input read from mempath: __INPUT__/TEST_MODEL/IC                           


 Setting Discretization Options
 End Setting Discretization Options

 Setting Discretization Dimensions
    NLAY = 1
    NROW = 10
    NCOL = 10
 End Setting Discretization Dimensions

 Setting Discretization Griddata
    DELR set from input file
    DELC set from input file
    TOP set from input file
    BOTM set from input file
 End Setting Discretization Griddata

 Setting NPF Options
 End Setting NPF Options

 Setting NPF Griddata
    ICELLTYPE set from input file
    K set from input file
    K33 not provided.  Setting K33 = K.
    K22 not provided.  Setting K22 = K.
 End Setting NPF Griddata


 CHD   -- CHD PACKAGE, VERSION 8, 2/22/2014 INPUT READ FROM MEMPATH: __INPUT__/TEST_MODEL/CHD_0                        

 PROCESSING CHD BASE OPTIONS
 END OF CHD BASE OPTIONS

 PROCESSING CHD BASE DIMENSIONS
    MAXBOUND =      20
 END OF CHD BASE DIMENSIONS
    STRT set from input file

 STO -- STORAGE PACKAGE, VERSION 1, 5/19/2014 INPUT READ FROM MEMPATH: __INPUT__/TEST_MODEL/STO                          


 PROCESSING STORAGE OPTIONS
 END OF STORAGE OPTIONS
    BINARY GRID INFORMATION WILL BE WRITTEN TO:
      UNIT NUMBER: 1012
      FILE NAME: test_model.dis.grb

 OPENED test_model.dis.grb
 FILE TYPE:DATA(BINARY)   UNIT 1012   STATUS:REPLACE             
 FORMAT:UNFORMATTED            ACCESS:STREAM              
 ACTION:READWRITE           

      THE LAST TIME STEP WILL BE PRINTED
      THE LAST TIME STEP WILL BE PRINTED
 # File generated by Flopy version 3.10.0 on 05/09/2026 at 08:54:31.

 PROCESSING OC OPTIONS

    HEAD INFORMATION WILL BE WRITTEN TO:
      UNIT NUMBER: 1013
      FILE NAME: test_model.hds

 OPENED test_model.hds
 FILE TYPE:DATA(BINARY)   UNIT 1013   STATUS:REPLACE             
 FORMAT:UNFORMATTED            ACCESS:STREAM              
 ACTION:READWRITE           

 END OF OC OPTIONS

start timestep kper="1" kstp="1" mode="normal"


 BEGIN READING OUTPUT CONTROL FOR STRESS PERIOD 1
      THE LAST TIME STEP WILL BE SAVED

 END READING OUTPUT CONTROL FOR STRESS PERIOD 1


 PROCESSING STORAGE PERIOD DATA
 END PROCESSING STORAGE PERIOD DATA


 STRESS PERIOD 1 IS STEADY-STATE


 SLN_1 INNER ITERATION SUMMARY
 --------------------------------------------------------------------------------------------------------------------------------------
      TOTAL      OUTER      INNER                                                            MAXIMUM                                   
  ITERATION  ITERATION  ITERATION  MAXIMUM CHANGE      MAXIMUM CHANGE MODEL-(CELLID)        RESIDUAL    MAXIMUM RESIDUAL MODEL-(CELLID)
 --------------------------------------------------------------------------------------------------------------------------------------
          1          1          1       3.7704637                     1_GWF-(1,10,2)       725.75404                      1_GWF-(1,2,8)
          2          1          2       1.3911521                      1_GWF-(1,1,3)       206.68188                      1_GWF-(1,1,3)
          3          1          3      0.18429744                      1_GWF-(1,2,4)      -23.931599                      1_GWF-(1,2,5)
          4          1          4 -5.96868914E-02                     1_GWF-(1,10,5)      -18.674526                      1_GWF-(1,2,7)
          5          1          5 -3.86962868E-02                      1_GWF-(1,9,4)      -5.2907079                      1_GWF-(1,1,8)
          6          1          6  1.00489052E-02                      1_GWF-(1,1,8)       1.4071220                      1_GWF-(1,2,2)
          7          1          7 -2.48154129E-03                     1_GWF-(1,10,6)      0.57047772                      1_GWF-(1,2,3)
          8          1          8 -1.78801531E-03                      1_GWF-(1,1,5)     -0.38598894                      1_GWF-(1,9,7)
          9          1          9 -1.05279707E-03                      1_GWF-(1,1,7)     -0.17742016                      1_GWF-(1,2,4)
         10          1         10 -2.11540425E-04                      1_GWF-(1,2,6) -3.18400287E-02                      1_GWF-(1,3,3)
         11          2          1  6.04027116E-02                     1_GWF-(1,10,6)      -15.621943                      1_GWF-(1,2,2)
         12          2          2  5.59363511E-02                      1_GWF-(1,8,6)      -6.6511249                      1_GWF-(1,2,8)
         13          2          3  9.29762730E-03                      1_GWF-(1,2,8)     -0.96350974                      1_GWF-(1,3,7)
         14          2          4 -2.01744377E-03                     1_GWF-(1,10,5)     -0.27996749                      1_GWF-(1,1,5)
         15          2          5 -8.88811833E-04                     1_GWF-(1,10,4)     -0.15071606                      1_GWF-(1,2,5)
         16          2          6  3.47864010E-04                      1_GWF-(1,2,6) -6.55260532E-02                      1_GWF-(1,2,2)
         17          3          1  9.05210582E-04                      1_GWF-(1,1,8)     -0.14711030                      1_GWF-(1,1,2)
         18          3          2 -1.15735764E-04                      1_GWF-(1,8,4)  2.49052367E-02                      1_GWF-(1,2,5)
         19          4          1 -3.62502514E-05                      1_GWF-(1,2,5)  6.95958573E-03                      1_GWF-(1,1,6)
         20          5          1 -2.19260557E-05                      1_GWF-(1,1,6)  7.83124659E-03                      1_GWF-(1,2,5)
         21          6          1 -1.14985904E-05                      1_GWF-(1,2,5)  3.19746010E-03                      1_GWF-(1,1,6)
         22          7          1 -1.00862399E-05                      1_GWF-(1,1,7)  4.47552174E-03                      1_GWF-(1,2,5)
         23          8          1 -6.15570727E-06                      1_GWF-(1,2,5)  1.68444021E-03                      1_GWF-(1,1,6)
         24          9          1 -5.18140715E-06                      1_GWF-(1,1,6)  2.40482285E-03                      1_GWF-(1,2,5)
         25         10          1 -3.21698058E-06                      1_GWF-(1,2,5)  8.87193888E-04                      1_GWF-(1,1,6)
         26         11          1 -2.68960327E-06                      1_GWF-(1,1,6)  1.27755000E-03                      1_GWF-(1,2,5)
         27         12          1 -1.67998870E-06                      1_GWF-(1,2,5)  4.65882443E-04                      1_GWF-(1,1,6)
         28         13          1 -1.39838435E-06                      1_GWF-(1,1,6)  6.74041212E-04                      1_GWF-(1,2,5)
         29         14          1 -8.76275167E-07                      1_GWF-(1,2,5)  2.43972587E-04                      1_GWF-(1,1,6)
 --------------------------------------------------------------------------------------------------------------------------------------



 HEAD WILL BE SAVED ON UNIT 1013 AT END OF TIME STEP    1, STRESS PERIOD    1


  VOLUME BUDGET FOR ENTIRE MODEL AT END OF TIME STEP    1, STRESS PERIOD   1
  ---------------------------------------------------------------------------------------------------

     CUMULATIVE VOLUME      L**3       RATES FOR THIS TIME STEP      L**3/T          PACKAGE NAME    
     ------------------                 ------------------------                     ----------------

           IN:                                      IN:
           ---                                      ---
              STO-SS =           0.0000                STO-SS =           0.0000     STORAGE                          
                 CHD =     5277594.6882                   CHD =        5277.5947     CHD_0                            

            TOTAL IN =     5277594.6882              TOTAL IN =        5277.5947

          OUT:                                     OUT:
          ----                                     ----
              STO-SS =           0.0000                STO-SS =           0.0000     STORAGE                          
                 CHD =     5277597.9553                   CHD =        5277.5980     CHD_0                            

           TOTAL OUT =     5277597.9553             TOTAL OUT =        5277.5980

            IN - OUT =          -3.2671              IN - OUT =      -3.2671E-03

 PERCENT DISCREPANCY =          -0.00     PERCENT DISCREPANCY =          -0.00




         TIME SUMMARY AT END OF TIME STEP    1 IN STRESS PERIOD    1
                    SECONDS     MINUTES      HOURS       DAYS        YEARS
                    -----------------------------------------------------------
   TIME STEP LENGTH 8.64000E+07 1.44000E+06  24000.      1000.0      2.7379    
 STRESS PERIOD TIME 8.64000E+07 1.44000E+06  24000.      1000.0      2.7379    
         TOTAL TIME 8.64000E+07 1.44000E+06  24000.      1000.0      2.7379    


end timestep

